LTspice 24.1.4 for Windows
Circuit: C:\Users\josea\OneDrive\Escritorio\Andres\TEC\2025 - Semestre I\Fundamentos de arquitectura de computadores\Taller 1 - Compuertas y consideraciones electricas\Gates.net
Start Time: Thu Feb 27 14:26:41 2025
C:\Users\josea\OneDrive\Escritorio\Andres\TEC\2025 - Semestre I\Fundamentos de arquitectura de computadores\Taller 1 - Compuertas y consideraciones electricas\OR-SN74AHCT1G32.cir(138): Note: The caret character means exponentiation in this context. If you wish to silence this warning, use the "**" operator instead or add ".OPTIONS NO_CARET_WARNING" to your netlist.
+ 2*MAXICC*((V(IN,VEE)-VT)/V(VCC,VEE))^2)*(1 + SGN(V(VCC,VEE) - VCC_MIN))*V(VSWITCH,VEE)}
                                      ^
C:\Users\josea\OneDrive\Escritorio\Andres\TEC\2025 - Semestre I\Fundamentos de arquitectura de computadores\Taller 1 - Compuertas y consideraciones electricas\OR-SN74AHCT1G32.cir(140): Note: The caret character means exponentiation in this context. If you wish to silence this warning, use the "**" operator instead or add ".OPTIONS NO_CARET_WARNING" to your netlist.
+ 2*MAXICC*((V(IN,VEE)-VT)/V(VCC,VEE))^2)*(1 + SGN(V(VCC,VEE) - VCC_MIN))*V(VSWITCH,VEE)}
                                      ^
C:\Users\josea\OneDrive\Escritorio\Andres\TEC\2025 - Semestre I\Fundamentos de arquitectura de computadores\Taller 1 - Compuertas y consideraciones electricas\OR-SN74AHCT1G32.cir(142): Note: The caret character means exponentiation in this context. If you wish to silence this warning, use the "**" operator instead or add ".OPTIONS NO_CARET_WARNING" to your netlist.
+ 2*MAXICC*((V(IN,VEE)-(V(VCC,VEE)-VT))/V(VCC,VEE))^2)*(1 + SGN(V(VCC,VEE) - VCC_MIN))*V(VSWITCH1,VEE)}
                                                   ^
C:\Users\josea\OneDrive\Escritorio\Andres\TEC\2025 - Semestre I\Fundamentos de arquitectura de computadores\Taller 1 - Compuertas y consideraciones electricas\OR-SN74AHCT1G32.cir(144): Note: The caret character means exponentiation in this context. If you wish to silence this warning, use the "**" operator instead or add ".OPTIONS NO_CARET_WARNING" to your netlist.
+ 2*MAXICC*((V(IN,VEE)-(V(VCC,VEE)-VT))/V(VCC,VEE))^2)*(1 + SGN(V(VCC,VEE) - VCC_MIN))*V(VSWITCH1,VEE)}
                                                   ^
C:\Users\josea\OneDrive\Escritorio\Andres\TEC\2025 - Semestre I\Fundamentos de arquitectura de computadores\Taller 1 - Compuertas y consideraciones electricas\OR-SN74AHCT1G32.cir(138): Note: The caret character means exponentiation in this context. If you wish to silence this warning, use the "**" operator instead or add ".OPTIONS NO_CARET_WARNING" to your netlist.
+ 2*MAXICC*((V(IN,VEE)-VT)/V(VCC,VEE))^2)*(1 + SGN(V(VCC,VEE) - VCC_MIN))*V(VSWITCH,VEE)}
                                      ^
C:\Users\josea\OneDrive\Escritorio\Andres\TEC\2025 - Semestre I\Fundamentos de arquitectura de computadores\Taller 1 - Compuertas y consideraciones electricas\OR-SN74AHCT1G32.cir(140): Note: The caret character means exponentiation in this context. If you wish to silence this warning, use the "**" operator instead or add ".OPTIONS NO_CARET_WARNING" to your netlist.
+ 2*MAXICC*((V(IN,VEE)-VT)/V(VCC,VEE))^2)*(1 + SGN(V(VCC,VEE) - VCC_MIN))*V(VSWITCH,VEE)}
                                      ^
C:\Users\josea\OneDrive\Escritorio\Andres\TEC\2025 - Semestre I\Fundamentos de arquitectura de computadores\Taller 1 - Compuertas y consideraciones electricas\OR-SN74AHCT1G32.cir(142): Note: The caret character means exponentiation in this context. If you wish to silence this warning, use the "**" operator instead or add ".OPTIONS NO_CARET_WARNING" to your netlist.
+ 2*MAXICC*((V(IN,VEE)-(V(VCC,VEE)-VT))/V(VCC,VEE))^2)*(1 + SGN(V(VCC,VEE) - VCC_MIN))*V(VSWITCH1,VEE)}
                                                   ^
C:\Users\josea\OneDrive\Escritorio\Andres\TEC\2025 - Semestre I\Fundamentos de arquitectura de computadores\Taller 1 - Compuertas y consideraciones electricas\OR-SN74AHCT1G32.cir(144): Note: The caret character means exponentiation in this context. If you wish to silence this warning, use the "**" operator instead or add ".OPTIONS NO_CARET_WARNING" to your netlist.
+ 2*MAXICC*((V(IN,VEE)-(V(VCC,VEE)-VT))/V(VCC,VEE))^2)*(1 + SGN(V(VCC,VEE) - VCC_MIN))*V(VSWITCH1,VEE)}
                                                   ^
C:\Users\josea\OneDrive\Escritorio\Andres\TEC\2025 - Semestre I\Fundamentos de arquitectura de computadores\Taller 1 - Compuertas y consideraciones electricas\NAND-SN74AHCT1G00.cir(138): Note: The caret character means exponentiation in this context. If you wish to silence this warning, use the "**" operator instead or add ".OPTIONS NO_CARET_WARNING" to your netlist.
+ 2*MAXICC*((V(IN,VEE)-VT)/V(VCC,VEE))^2)*(1 + SGN(V(VCC,VEE) - VCC_MIN))*V(VSWITCH,VEE)}
                                      ^
C:\Users\josea\OneDrive\Escritorio\Andres\TEC\2025 - Semestre I\Fundamentos de arquitectura de computadores\Taller 1 - Compuertas y consideraciones electricas\NAND-SN74AHCT1G00.cir(140): Note: The caret character means exponentiation in this context. If you wish to silence this warning, use the "**" operator instead or add ".OPTIONS NO_CARET_WARNING" to your netlist.
+ 2*MAXICC*((V(IN,VEE)-VT)/V(VCC,VEE))^2)*(1 + SGN(V(VCC,VEE) - VCC_MIN))*V(VSWITCH,VEE)}
                                      ^
C:\Users\josea\OneDrive\Escritorio\Andres\TEC\2025 - Semestre I\Fundamentos de arquitectura de computadores\Taller 1 - Compuertas y consideraciones electricas\NAND-SN74AHCT1G00.cir(142): Note: The caret character means exponentiation in this context. If you wish to silence this warning, use the "**" operator instead or add ".OPTIONS NO_CARET_WARNING" to your netlist.
+ 2*MAXICC*((V(IN,VEE)-(V(VCC,VEE)-VT))/V(VCC,VEE))^2)*(1 + SGN(V(VCC,VEE) - VCC_MIN))*V(VSWITCH1,VEE)}
                                                   ^
C:\Users\josea\OneDrive\Escritorio\Andres\TEC\2025 - Semestre I\Fundamentos de arquitectura de computadores\Taller 1 - Compuertas y consideraciones electricas\NAND-SN74AHCT1G00.cir(144): Note: The caret character means exponentiation in this context. If you wish to silence this warning, use the "**" operator instead or add ".OPTIONS NO_CARET_WARNING" to your netlist.
+ 2*MAXICC*((V(IN,VEE)-(V(VCC,VEE)-VT))/V(VCC,VEE))^2)*(1 + SGN(V(VCC,VEE) - VCC_MIN))*V(VSWITCH1,VEE)}
                                                   ^
C:\Users\josea\OneDrive\Escritorio\Andres\TEC\2025 - Semestre I\Fundamentos de arquitectura de computadores\Taller 1 - Compuertas y consideraciones electricas\NAND-SN74AHCT1G00.cir(138): Note: The caret character means exponentiation in this context. If you wish to silence this warning, use the "**" operator instead or add ".OPTIONS NO_CARET_WARNING" to your netlist.
+ 2*MAXICC*((V(IN,VEE)-VT)/V(VCC,VEE))^2)*(1 + SGN(V(VCC,VEE) - VCC_MIN))*V(VSWITCH,VEE)}
                                      ^
C:\Users\josea\OneDrive\Escritorio\Andres\TEC\2025 - Semestre I\Fundamentos de arquitectura de computadores\Taller 1 - Compuertas y consideraciones electricas\NAND-SN74AHCT1G00.cir(140): Note: The caret character means exponentiation in this context. If you wish to silence this warning, use the "**" operator instead or add ".OPTIONS NO_CARET_WARNING" to your netlist.
+ 2*MAXICC*((V(IN,VEE)-VT)/V(VCC,VEE))^2)*(1 + SGN(V(VCC,VEE) - VCC_MIN))*V(VSWITCH,VEE)}
                                      ^
C:\Users\josea\OneDrive\Escritorio\Andres\TEC\2025 - Semestre I\Fundamentos de arquitectura de computadores\Taller 1 - Compuertas y consideraciones electricas\NAND-SN74AHCT1G00.cir(142): Note: The caret character means exponentiation in this context. If you wish to silence this warning, use the "**" operator instead or add ".OPTIONS NO_CARET_WARNING" to your netlist.
+ 2*MAXICC*((V(IN,VEE)-(V(VCC,VEE)-VT))/V(VCC,VEE))^2)*(1 + SGN(V(VCC,VEE) - VCC_MIN))*V(VSWITCH1,VEE)}
                                                   ^
C:\Users\josea\OneDrive\Escritorio\Andres\TEC\2025 - Semestre I\Fundamentos de arquitectura de computadores\Taller 1 - Compuertas y consideraciones electricas\NAND-SN74AHCT1G00.cir(144): Note: The caret character means exponentiation in this context. If you wish to silence this warning, use the "**" operator instead or add ".OPTIONS NO_CARET_WARNING" to your netlist.
+ 2*MAXICC*((V(IN,VEE)-(V(VCC,VEE)-VT))/V(VCC,VEE))^2)*(1 + SGN(V(VCC,VEE) - VCC_MIN))*V(VSWITCH1,VEE)}
                                                   ^
C:\Users\josea\OneDrive\Escritorio\Andres\TEC\2025 - Semestre I\Fundamentos de arquitectura de computadores\Taller 1 - Compuertas y consideraciones electricas\AND-SN74HCT08.cir(138): Note: The caret character means exponentiation in this context. If you wish to silence this warning, use the "**" operator instead or add ".OPTIONS NO_CARET_WARNING" to your netlist.
+ 2*MAXICC*((V(IN,VEE)-VT)/V(VCC,VEE))^2)*(1 + SGN(V(VCC,VEE) - VCC_MIN))*V(VSWITCH,VEE)}
                                      ^
C:\Users\josea\OneDrive\Escritorio\Andres\TEC\2025 - Semestre I\Fundamentos de arquitectura de computadores\Taller 1 - Compuertas y consideraciones electricas\AND-SN74HCT08.cir(140): Note: The caret character means exponentiation in this context. If you wish to silence this warning, use the "**" operator instead or add ".OPTIONS NO_CARET_WARNING" to your netlist.
+ 2*MAXICC*((V(IN,VEE)-VT)/V(VCC,VEE))^2)*(1 + SGN(V(VCC,VEE) - VCC_MIN))*V(VSWITCH,VEE)}
                                      ^
C:\Users\josea\OneDrive\Escritorio\Andres\TEC\2025 - Semestre I\Fundamentos de arquitectura de computadores\Taller 1 - Compuertas y consideraciones electricas\AND-SN74HCT08.cir(142): Note: The caret character means exponentiation in this context. If you wish to silence this warning, use the "**" operator instead or add ".OPTIONS NO_CARET_WARNING" to your netlist.
+ 2*MAXICC*((V(IN,VEE)-(V(VCC,VEE)-VT))/V(VCC,VEE))^2)*(1 + SGN(V(VCC,VEE) - VCC_MIN))*V(VSWITCH1,VEE)}
                                                   ^
C:\Users\josea\OneDrive\Escritorio\Andres\TEC\2025 - Semestre I\Fundamentos de arquitectura de computadores\Taller 1 - Compuertas y consideraciones electricas\AND-SN74HCT08.cir(144): Note: The caret character means exponentiation in this context. If you wish to silence this warning, use the "**" operator instead or add ".OPTIONS NO_CARET_WARNING" to your netlist.
+ 2*MAXICC*((V(IN,VEE)-(V(VCC,VEE)-VT))/V(VCC,VEE))^2)*(1 + SGN(V(VCC,VEE) - VCC_MIN))*V(VSWITCH1,VEE)}
                                                   ^
C:\Users\josea\OneDrive\Escritorio\Andres\TEC\2025 - Semestre I\Fundamentos de arquitectura de computadores\Taller 1 - Compuertas y consideraciones electricas\AND-SN74HCT08.cir(138): Note: The caret character means exponentiation in this context. If you wish to silence this warning, use the "**" operator instead or add ".OPTIONS NO_CARET_WARNING" to your netlist.
+ 2*MAXICC*((V(IN,VEE)-VT)/V(VCC,VEE))^2)*(1 + SGN(V(VCC,VEE) - VCC_MIN))*V(VSWITCH,VEE)}
                                      ^
C:\Users\josea\OneDrive\Escritorio\Andres\TEC\2025 - Semestre I\Fundamentos de arquitectura de computadores\Taller 1 - Compuertas y consideraciones electricas\AND-SN74HCT08.cir(140): Note: The caret character means exponentiation in this context. If you wish to silence this warning, use the "**" operator instead or add ".OPTIONS NO_CARET_WARNING" to your netlist.
+ 2*MAXICC*((V(IN,VEE)-VT)/V(VCC,VEE))^2)*(1 + SGN(V(VCC,VEE) - VCC_MIN))*V(VSWITCH,VEE)}
                                      ^
C:\Users\josea\OneDrive\Escritorio\Andres\TEC\2025 - Semestre I\Fundamentos de arquitectura de computadores\Taller 1 - Compuertas y consideraciones electricas\AND-SN74HCT08.cir(142): Note: The caret character means exponentiation in this context. If you wish to silence this warning, use the "**" operator instead or add ".OPTIONS NO_CARET_WARNING" to your netlist.
+ 2*MAXICC*((V(IN,VEE)-(V(VCC,VEE)-VT))/V(VCC,VEE))^2)*(1 + SGN(V(VCC,VEE) - VCC_MIN))*V(VSWITCH1,VEE)}
                                                   ^
C:\Users\josea\OneDrive\Escritorio\Andres\TEC\2025 - Semestre I\Fundamentos de arquitectura de computadores\Taller 1 - Compuertas y consideraciones electricas\AND-SN74HCT08.cir(144): Note: The caret character means exponentiation in this context. If you wish to silence this warning, use the "**" operator instead or add ".OPTIONS NO_CARET_WARNING" to your netlist.
+ 2*MAXICC*((V(IN,VEE)-(V(VCC,VEE)-VT))/V(VCC,VEE))^2)*(1 + SGN(V(VCC,VEE) - VCC_MIN))*V(VSWITCH1,VEE)}
                                                   ^
C:\Users\josea\OneDrive\Escritorio\Andres\TEC\2025 - Semestre I\Fundamentos de arquitectura de computadores\Taller 1 - Compuertas y consideraciones electricas\NOR-SN74AHCT02.cir(135): Note: The caret character means exponentiation in this context. If you wish to silence this warning, use the "**" operator instead or add ".OPTIONS NO_CARET_WARNING" to your netlist.
+ 2*MAXICC*((V(IN,VEE)-VT)/V(VCC,VEE))^2)*(1 + SGN(V(VCC,VEE) - VCC_MIN))*V(VSWITCH,VEE)}
                                      ^
C:\Users\josea\OneDrive\Escritorio\Andres\TEC\2025 - Semestre I\Fundamentos de arquitectura de computadores\Taller 1 - Compuertas y consideraciones electricas\NOR-SN74AHCT02.cir(137): Note: The caret character means exponentiation in this context. If you wish to silence this warning, use the "**" operator instead or add ".OPTIONS NO_CARET_WARNING" to your netlist.
+ 2*MAXICC*((V(IN,VEE)-VT)/V(VCC,VEE))^2)*(1 + SGN(V(VCC,VEE) - VCC_MIN))*V(VSWITCH,VEE)}
                                      ^
C:\Users\josea\OneDrive\Escritorio\Andres\TEC\2025 - Semestre I\Fundamentos de arquitectura de computadores\Taller 1 - Compuertas y consideraciones electricas\NOR-SN74AHCT02.cir(139): Note: The caret character means exponentiation in this context. If you wish to silence this warning, use the "**" operator instead or add ".OPTIONS NO_CARET_WARNING" to your netlist.
+ 2*MAXICC*((V(IN,VEE)-(V(VCC,VEE)-VT))/V(VCC,VEE))^2)*(1 + SGN(V(VCC,VEE) - VCC_MIN))*V(VSWITCH1,VEE)}
                                                   ^
C:\Users\josea\OneDrive\Escritorio\Andres\TEC\2025 - Semestre I\Fundamentos de arquitectura de computadores\Taller 1 - Compuertas y consideraciones electricas\NOR-SN74AHCT02.cir(141): Note: The caret character means exponentiation in this context. If you wish to silence this warning, use the "**" operator instead or add ".OPTIONS NO_CARET_WARNING" to your netlist.
+ 2*MAXICC*((V(IN,VEE)-(V(VCC,VEE)-VT))/V(VCC,VEE))^2)*(1 + SGN(V(VCC,VEE) - VCC_MIN))*V(VSWITCH1,VEE)}
                                                   ^
C:\Users\josea\OneDrive\Escritorio\Andres\TEC\2025 - Semestre I\Fundamentos de arquitectura de computadores\Taller 1 - Compuertas y consideraciones electricas\NOR-SN74AHCT02.cir(135): Note: The caret character means exponentiation in this context. If you wish to silence this warning, use the "**" operator instead or add ".OPTIONS NO_CARET_WARNING" to your netlist.
+ 2*MAXICC*((V(IN,VEE)-VT)/V(VCC,VEE))^2)*(1 + SGN(V(VCC,VEE) - VCC_MIN))*V(VSWITCH,VEE)}
                                      ^
C:\Users\josea\OneDrive\Escritorio\Andres\TEC\2025 - Semestre I\Fundamentos de arquitectura de computadores\Taller 1 - Compuertas y consideraciones electricas\NOR-SN74AHCT02.cir(137): Note: The caret character means exponentiation in this context. If you wish to silence this warning, use the "**" operator instead or add ".OPTIONS NO_CARET_WARNING" to your netlist.
+ 2*MAXICC*((V(IN,VEE)-VT)/V(VCC,VEE))^2)*(1 + SGN(V(VCC,VEE) - VCC_MIN))*V(VSWITCH,VEE)}
                                      ^
C:\Users\josea\OneDrive\Escritorio\Andres\TEC\2025 - Semestre I\Fundamentos de arquitectura de computadores\Taller 1 - Compuertas y consideraciones electricas\NOR-SN74AHCT02.cir(139): Note: The caret character means exponentiation in this context. If you wish to silence this warning, use the "**" operator instead or add ".OPTIONS NO_CARET_WARNING" to your netlist.
+ 2*MAXICC*((V(IN,VEE)-(V(VCC,VEE)-VT))/V(VCC,VEE))^2)*(1 + SGN(V(VCC,VEE) - VCC_MIN))*V(VSWITCH1,VEE)}
                                                   ^
C:\Users\josea\OneDrive\Escritorio\Andres\TEC\2025 - Semestre I\Fundamentos de arquitectura de computadores\Taller 1 - Compuertas y consideraciones electricas\NOR-SN74AHCT02.cir(141): Note: The caret character means exponentiation in this context. If you wish to silence this warning, use the "**" operator instead or add ".OPTIONS NO_CARET_WARNING" to your netlist.
+ 2*MAXICC*((V(IN,VEE)-(V(VCC,VEE)-VT))/V(VCC,VEE))^2)*(1 + SGN(V(VCC,VEE) - VCC_MIN))*V(VSWITCH1,VEE)}
                                                   ^
C:\Users\josea\OneDrive\Escritorio\Andres\TEC\2025 - Semestre I\Fundamentos de arquitectura de computadores\Taller 1 - Compuertas y consideraciones electricas\XOR-SN74AHCT1G86.cir(138): Note: The caret character means exponentiation in this context. If you wish to silence this warning, use the "**" operator instead or add ".OPTIONS NO_CARET_WARNING" to your netlist.
+ 2*MAXICC*((V(IN,VEE)-VT)/V(VCC,VEE))^2)*(1 + SGN(V(VCC,VEE) - VCC_MIN))*V(VSWITCH,VEE)}
                                      ^
C:\Users\josea\OneDrive\Escritorio\Andres\TEC\2025 - Semestre I\Fundamentos de arquitectura de computadores\Taller 1 - Compuertas y consideraciones electricas\XOR-SN74AHCT1G86.cir(140): Note: The caret character means exponentiation in this context. If you wish to silence this warning, use the "**" operator instead or add ".OPTIONS NO_CARET_WARNING" to your netlist.
+ 2*MAXICC*((V(IN,VEE)-VT)/V(VCC,VEE))^2)*(1 + SGN(V(VCC,VEE) - VCC_MIN))*V(VSWITCH,VEE)}
                                      ^
C:\Users\josea\OneDrive\Escritorio\Andres\TEC\2025 - Semestre I\Fundamentos de arquitectura de computadores\Taller 1 - Compuertas y consideraciones electricas\XOR-SN74AHCT1G86.cir(142): Note: The caret character means exponentiation in this context. If you wish to silence this warning, use the "**" operator instead or add ".OPTIONS NO_CARET_WARNING" to your netlist.
+ 2*MAXICC*((V(IN,VEE)-(V(VCC,VEE)-VT))/V(VCC,VEE))^2)*(1 + SGN(V(VCC,VEE) - VCC_MIN))*V(VSWITCH1,VEE)}
                                                   ^
C:\Users\josea\OneDrive\Escritorio\Andres\TEC\2025 - Semestre I\Fundamentos de arquitectura de computadores\Taller 1 - Compuertas y consideraciones electricas\XOR-SN74AHCT1G86.cir(144): Note: The caret character means exponentiation in this context. If you wish to silence this warning, use the "**" operator instead or add ".OPTIONS NO_CARET_WARNING" to your netlist.
+ 2*MAXICC*((V(IN,VEE)-(V(VCC,VEE)-VT))/V(VCC,VEE))^2)*(1 + SGN(V(VCC,VEE) - VCC_MIN))*V(VSWITCH1,VEE)}
                                                   ^
C:\Users\josea\OneDrive\Escritorio\Andres\TEC\2025 - Semestre I\Fundamentos de arquitectura de computadores\Taller 1 - Compuertas y consideraciones electricas\XOR-SN74AHCT1G86.cir(138): Note: The caret character means exponentiation in this context. If you wish to silence this warning, use the "**" operator instead or add ".OPTIONS NO_CARET_WARNING" to your netlist.
+ 2*MAXICC*((V(IN,VEE)-VT)/V(VCC,VEE))^2)*(1 + SGN(V(VCC,VEE) - VCC_MIN))*V(VSWITCH,VEE)}
                                      ^
C:\Users\josea\OneDrive\Escritorio\Andres\TEC\2025 - Semestre I\Fundamentos de arquitectura de computadores\Taller 1 - Compuertas y consideraciones electricas\XOR-SN74AHCT1G86.cir(140): Note: The caret character means exponentiation in this context. If you wish to silence this warning, use the "**" operator instead or add ".OPTIONS NO_CARET_WARNING" to your netlist.
+ 2*MAXICC*((V(IN,VEE)-VT)/V(VCC,VEE))^2)*(1 + SGN(V(VCC,VEE) - VCC_MIN))*V(VSWITCH,VEE)}
                                      ^
C:\Users\josea\OneDrive\Escritorio\Andres\TEC\2025 - Semestre I\Fundamentos de arquitectura de computadores\Taller 1 - Compuertas y consideraciones electricas\XOR-SN74AHCT1G86.cir(142): Note: The caret character means exponentiation in this context. If you wish to silence this warning, use the "**" operator instead or add ".OPTIONS NO_CARET_WARNING" to your netlist.
+ 2*MAXICC*((V(IN,VEE)-(V(VCC,VEE)-VT))/V(VCC,VEE))^2)*(1 + SGN(V(VCC,VEE) - VCC_MIN))*V(VSWITCH1,VEE)}
                                                   ^
C:\Users\josea\OneDrive\Escritorio\Andres\TEC\2025 - Semestre I\Fundamentos de arquitectura de computadores\Taller 1 - Compuertas y consideraciones electricas\XOR-SN74AHCT1G86.cir(144): Note: The caret character means exponentiation in this context. If you wish to silence this warning, use the "**" operator instead or add ".OPTIONS NO_CARET_WARNING" to your netlist.
+ 2*MAXICC*((V(IN,VEE)-(V(VCC,VEE)-VT))/V(VCC,VEE))^2)*(1 + SGN(V(VCC,VEE) - VCC_MIN))*V(VSWITCH1,VEE)}
                                                   ^
C:\Users\josea\OneDrive\Escritorio\Andres\TEC\2025 - Semestre I\Fundamentos de arquitectura de computadores\Taller 1 - Compuertas y consideraciones electricas\NOT-CD74HCT04.cir(135): Note: The caret character means exponentiation in this context. If you wish to silence this warning, use the "**" operator instead or add ".OPTIONS NO_CARET_WARNING" to your netlist.
+ 2*MAXICC*((V(IN,VEE)-VT)/V(VCC,VEE))^2)*(1 + SGN(V(VCC,VEE) - VCC_MIN))*V(VSWITCH,VEE)}
                                      ^
C:\Users\josea\OneDrive\Escritorio\Andres\TEC\2025 - Semestre I\Fundamentos de arquitectura de computadores\Taller 1 - Compuertas y consideraciones electricas\NOT-CD74HCT04.cir(137): Note: The caret character means exponentiation in this context. If you wish to silence this warning, use the "**" operator instead or add ".OPTIONS NO_CARET_WARNING" to your netlist.
+ 2*MAXICC*((V(IN,VEE)-VT)/V(VCC,VEE))^2)*(1 + SGN(V(VCC,VEE) - VCC_MIN))*V(VSWITCH,VEE)}
                                      ^
C:\Users\josea\OneDrive\Escritorio\Andres\TEC\2025 - Semestre I\Fundamentos de arquitectura de computadores\Taller 1 - Compuertas y consideraciones electricas\NOT-CD74HCT04.cir(139): Note: The caret character means exponentiation in this context. If you wish to silence this warning, use the "**" operator instead or add ".OPTIONS NO_CARET_WARNING" to your netlist.
+ 2*MAXICC*((V(IN,VEE)-(V(VCC,VEE)-VT))/V(VCC,VEE))^2)*(1 + SGN(V(VCC,VEE) - VCC_MIN))*V(VSWITCH1,VEE)}
                                                   ^
C:\Users\josea\OneDrive\Escritorio\Andres\TEC\2025 - Semestre I\Fundamentos de arquitectura de computadores\Taller 1 - Compuertas y consideraciones electricas\NOT-CD74HCT04.cir(141): Note: The caret character means exponentiation in this context. If you wish to silence this warning, use the "**" operator instead or add ".OPTIONS NO_CARET_WARNING" to your netlist.
+ 2*MAXICC*((V(IN,VEE)-(V(VCC,VEE)-VT))/V(VCC,VEE))^2)*(1 + SGN(V(VCC,VEE) - VCC_MIN))*V(VSWITCH1,VEE)}
                                                   ^
C:\Users\josea\OneDrive\Escritorio\Andres\TEC\2025 - Semestre I\Fundamentos de arquitectura de computadores\Taller 1 - Compuertas y consideraciones electricas\NOT-CD74HCT04.cir(135): Note: The caret character means exponentiation in this context. If you wish to silence this warning, use the "**" operator instead or add ".OPTIONS NO_CARET_WARNING" to your netlist.
+ 2*MAXICC*((V(IN,VEE)-VT)/V(VCC,VEE))^2)*(1 + SGN(V(VCC,VEE) - VCC_MIN))*V(VSWITCH,VEE)}
                                      ^
C:\Users\josea\OneDrive\Escritorio\Andres\TEC\2025 - Semestre I\Fundamentos de arquitectura de computadores\Taller 1 - Compuertas y consideraciones electricas\NOT-CD74HCT04.cir(137): Note: The caret character means exponentiation in this context. If you wish to silence this warning, use the "**" operator instead or add ".OPTIONS NO_CARET_WARNING" to your netlist.
+ 2*MAXICC*((V(IN,VEE)-VT)/V(VCC,VEE))^2)*(1 + SGN(V(VCC,VEE) - VCC_MIN))*V(VSWITCH,VEE)}
                                      ^
C:\Users\josea\OneDrive\Escritorio\Andres\TEC\2025 - Semestre I\Fundamentos de arquitectura de computadores\Taller 1 - Compuertas y consideraciones electricas\NOT-CD74HCT04.cir(139): Note: The caret character means exponentiation in this context. If you wish to silence this warning, use the "**" operator instead or add ".OPTIONS NO_CARET_WARNING" to your netlist.
+ 2*MAXICC*((V(IN,VEE)-(V(VCC,VEE)-VT))/V(VCC,VEE))^2)*(1 + SGN(V(VCC,VEE) - VCC_MIN))*V(VSWITCH1,VEE)}
                                                   ^
C:\Users\josea\OneDrive\Escritorio\Andres\TEC\2025 - Semestre I\Fundamentos de arquitectura de computadores\Taller 1 - Compuertas y consideraciones electricas\NOT-CD74HCT04.cir(141): Note: The caret character means exponentiation in this context. If you wish to silence this warning, use the "**" operator instead or add ".OPTIONS NO_CARET_WARNING" to your netlist.
+ 2*MAXICC*((V(IN,VEE)-(V(VCC,VEE)-VT))/V(VCC,VEE))^2)*(1 + SGN(V(VCC,VEE) - VCC_MIN))*V(VSWITCH1,VEE)}
                                                   ^
C:\Users\josea\OneDrive\Escritorio\Andres\TEC\2025 - Semestre I\Fundamentos de arquitectura de computadores\Taller 1 - Compuertas y consideraciones electricas\BUFFER-SN74LV244AT.cir(140): Note: The caret character means exponentiation in this context. If you wish to silence this warning, use the "**" operator instead or add ".OPTIONS NO_CARET_WARNING" to your netlist.
+ 2*MAXICC*((V(IN,VEE)-VT)/V(VCC,VEE))^2)*(1 + SGN(V(VCC,VEE) - VCC_MIN))*V(VSWITCH,VEE)}
                                      ^
C:\Users\josea\OneDrive\Escritorio\Andres\TEC\2025 - Semestre I\Fundamentos de arquitectura de computadores\Taller 1 - Compuertas y consideraciones electricas\BUFFER-SN74LV244AT.cir(142): Note: The caret character means exponentiation in this context. If you wish to silence this warning, use the "**" operator instead or add ".OPTIONS NO_CARET_WARNING" to your netlist.
+ 2*MAXICC*((V(IN,VEE)-VT)/V(VCC,VEE))^2)*(1 + SGN(V(VCC,VEE) - VCC_MIN))*V(VSWITCH,VEE)}
                                      ^
C:\Users\josea\OneDrive\Escritorio\Andres\TEC\2025 - Semestre I\Fundamentos de arquitectura de computadores\Taller 1 - Compuertas y consideraciones electricas\BUFFER-SN74LV244AT.cir(144): Note: The caret character means exponentiation in this context. If you wish to silence this warning, use the "**" operator instead or add ".OPTIONS NO_CARET_WARNING" to your netlist.
+ 2*MAXICC*((V(IN,VEE)-(V(VCC,VEE)-VT))/V(VCC,VEE))^2)*(1 + SGN(V(VCC,VEE) - VCC_MIN))*V(VSWITCH1,VEE)}
                                                   ^
C:\Users\josea\OneDrive\Escritorio\Andres\TEC\2025 - Semestre I\Fundamentos de arquitectura de computadores\Taller 1 - Compuertas y consideraciones electricas\BUFFER-SN74LV244AT.cir(146): Note: The caret character means exponentiation in this context. If you wish to silence this warning, use the "**" operator instead or add ".OPTIONS NO_CARET_WARNING" to your netlist.
+ 2*MAXICC*((V(IN,VEE)-(V(VCC,VEE)-VT))/V(VCC,VEE))^2)*(1 + SGN(V(VCC,VEE) - VCC_MIN))*V(VSWITCH1,VEE)}
                                                   ^
C:\Users\josea\OneDrive\Escritorio\Andres\TEC\2025 - Semestre I\Fundamentos de arquitectura de computadores\Taller 1 - Compuertas y consideraciones electricas\BUFFER-SN74LV244AT.cir(140): Note: The caret character means exponentiation in this context. If you wish to silence this warning, use the "**" operator instead or add ".OPTIONS NO_CARET_WARNING" to your netlist.
+ 2*MAXICC*((V(IN,VEE)-VT)/V(VCC,VEE))^2)*(1 + SGN(V(VCC,VEE) - VCC_MIN))*V(VSWITCH,VEE)}
                                      ^
C:\Users\josea\OneDrive\Escritorio\Andres\TEC\2025 - Semestre I\Fundamentos de arquitectura de computadores\Taller 1 - Compuertas y consideraciones electricas\BUFFER-SN74LV244AT.cir(142): Note: The caret character means exponentiation in this context. If you wish to silence this warning, use the "**" operator instead or add ".OPTIONS NO_CARET_WARNING" to your netlist.
+ 2*MAXICC*((V(IN,VEE)-VT)/V(VCC,VEE))^2)*(1 + SGN(V(VCC,VEE) - VCC_MIN))*V(VSWITCH,VEE)}
                                      ^
C:\Users\josea\OneDrive\Escritorio\Andres\TEC\2025 - Semestre I\Fundamentos de arquitectura de computadores\Taller 1 - Compuertas y consideraciones electricas\BUFFER-SN74LV244AT.cir(144): Note: The caret character means exponentiation in this context. If you wish to silence this warning, use the "**" operator instead or add ".OPTIONS NO_CARET_WARNING" to your netlist.
+ 2*MAXICC*((V(IN,VEE)-(V(VCC,VEE)-VT))/V(VCC,VEE))^2)*(1 + SGN(V(VCC,VEE) - VCC_MIN))*V(VSWITCH1,VEE)}
                                                   ^
C:\Users\josea\OneDrive\Escritorio\Andres\TEC\2025 - Semestre I\Fundamentos de arquitectura de computadores\Taller 1 - Compuertas y consideraciones electricas\BUFFER-SN74LV244AT.cir(146): Note: The caret character means exponentiation in this context. If you wish to silence this warning, use the "**" operator instead or add ".OPTIONS NO_CARET_WARNING" to your netlist.
+ 2*MAXICC*((V(IN,VEE)-(V(VCC,VEE)-VT))/V(VCC,VEE))^2)*(1 + SGN(V(VCC,VEE) - VCC_MIN))*V(VSWITCH1,VEE)}
                                                   ^
C:\Users\josea\OneDrive\Escritorio\Andres\TEC\2025 - Semestre I\Fundamentos de arquitectura de computadores\Taller 1 - Compuertas y consideraciones electricas\BUFFER-SN74LV244AT.cir(140): Note: The caret character means exponentiation in this context. If you wish to silence this warning, use the "**" operator instead or add ".OPTIONS NO_CARET_WARNING" to your netlist.
+ 2*MAXICC*((V(IN,VEE)-VT)/V(VCC,VEE))^2)*(1 + SGN(V(VCC,VEE) - VCC_MIN))*V(VSWITCH,VEE)}
                                      ^
C:\Users\josea\OneDrive\Escritorio\Andres\TEC\2025 - Semestre I\Fundamentos de arquitectura de computadores\Taller 1 - Compuertas y consideraciones electricas\BUFFER-SN74LV244AT.cir(142): Note: The caret character means exponentiation in this context. If you wish to silence this warning, use the "**" operator instead or add ".OPTIONS NO_CARET_WARNING" to your netlist.
+ 2*MAXICC*((V(IN,VEE)-VT)/V(VCC,VEE))^2)*(1 + SGN(V(VCC,VEE) - VCC_MIN))*V(VSWITCH,VEE)}
                                      ^
C:\Users\josea\OneDrive\Escritorio\Andres\TEC\2025 - Semestre I\Fundamentos de arquitectura de computadores\Taller 1 - Compuertas y consideraciones electricas\BUFFER-SN74LV244AT.cir(144): Note: The caret character means exponentiation in this context. If you wish to silence this warning, use the "**" operator instead or add ".OPTIONS NO_CARET_WARNING" to your netlist.
+ 2*MAXICC*((V(IN,VEE)-(V(VCC,VEE)-VT))/V(VCC,VEE))^2)*(1 + SGN(V(VCC,VEE) - VCC_MIN))*V(VSWITCH1,VEE)}
                                                   ^
C:\Users\josea\OneDrive\Escritorio\Andres\TEC\2025 - Semestre I\Fundamentos de arquitectura de computadores\Taller 1 - Compuertas y consideraciones electricas\BUFFER-SN74LV244AT.cir(146): Note: The caret character means exponentiation in this context. If you wish to silence this warning, use the "**" operator instead or add ".OPTIONS NO_CARET_WARNING" to your netlist.
+ 2*MAXICC*((V(IN,VEE)-(V(VCC,VEE)-VT))/V(VCC,VEE))^2)*(1 + SGN(V(VCC,VEE) - VCC_MIN))*V(VSWITCH1,VEE)}
                                                   ^
solver = Normal
Maximum thread count: 12
tnom = 27
temp = 27
method = trap
Direct Newton iteration for .op point succeeded.
Total elapsed time: 2.260 seconds.

Files loaded:
C:\Users\josea\OneDrive\Escritorio\Andres\TEC\2025 - Semestre I\Fundamentos de arquitectura de computadores\Taller 1 - Compuertas y consideraciones electricas\Gates.net
C:\Users\josea\OneDrive\Escritorio\Andres\TEC\2025 - Semestre I\Fundamentos de arquitectura de computadores\Taller 1 - Compuertas y consideraciones electricas\AND-SN74HCT08.cir
C:\Users\josea\OneDrive\Escritorio\Andres\TEC\2025 - Semestre I\Fundamentos de arquitectura de computadores\Taller 1 - Compuertas y consideraciones electricas\BUFFER-SN74LV244AT.cir
C:\Users\josea\OneDrive\Escritorio\Andres\TEC\2025 - Semestre I\Fundamentos de arquitectura de computadores\Taller 1 - Compuertas y consideraciones electricas\NAND-SN74AHCT1G00.cir
C:\Users\josea\OneDrive\Escritorio\Andres\TEC\2025 - Semestre I\Fundamentos de arquitectura de computadores\Taller 1 - Compuertas y consideraciones electricas\NOR-SN74AHCT02.cir
C:\Users\josea\OneDrive\Escritorio\Andres\TEC\2025 - Semestre I\Fundamentos de arquitectura de computadores\Taller 1 - Compuertas y consideraciones electricas\NOT-CD74HCT04.cir
C:\Users\josea\OneDrive\Escritorio\Andres\TEC\2025 - Semestre I\Fundamentos de arquitectura de computadores\Taller 1 - Compuertas y consideraciones electricas\OR-SN74AHCT1G32.cir
C:\Users\josea\OneDrive\Escritorio\Andres\TEC\2025 - Semestre I\Fundamentos de arquitectura de computadores\Taller 1 - Compuertas y consideraciones electricas\XOR-SN74AHCT1G86.cir

