LTspice 24.1.4 for Windows
Circuit: C:\Users\josea\OneDrive\Escritorio\Andres\TEC\2025_SemestreI\Fundamentos de arquitectura de computadores\Proyecto\Draft1.net
Start Time: Sat Mar 22 15:38:33 2025
solver = Normal
Maximum thread count: 12
tnom = 27
temp = 27
method = trap
Direct Newton iteration for .op point succeeded.
Total elapsed time: 0.586 seconds.

Files loaded:
C:\Users\josea\OneDrive\Escritorio\Andres\TEC\2025_SemestreI\Fundamentos de arquitectura de computadores\Proyecto\Draft1.net

